
** Library name: MS0072ZA_PM
** Cell name: esd_8972msdie
** View name: schematic
.subckt esd_8972msdie avdd_gate banksel compa discharge fbb1 fbb2 fbb3 gnd gnd_avdd gnd_bck1 gnd_bck2 gnd_bck3 gnd_havdd gnd_vgh lsaddr<0> lsaddr<1> lsaddr<2> lsdata<0> lsdata<1> lsdata<2> lsdata<3> lsdata<4> lsdata<5> lsdata<6> lsdata<7> lsflt lsvdd_rdy lswr ntc p_cs v20avdd v20a_cs v20dly2 v20dly3 v20en v20gd v20gd_i v20havdd v20n_cs v20scl v20sda v20vgl_gate v20vin3 v20vin12 v20vin_gl v40vgh vgh_gate vl vn20vgl vn20vss1 vn20vss2
xm71 gnd v20havdd v20havdd ap5g20d1w l=200e-9 w=105e-6 m=24 ad=90.3e-12 as=0 pd=211.72e-6 ps=0 area_bd=185.22e-12 pj_bd=56.58e-6 area_iso=351.67e-12 pj_iso=76.58e-6
xm70 gnd v20avdd v20avdd ap5g20d1w l=200e-9 w=105e-6 m=24 ad=90.3e-12 as=0 pd=211.72e-6 ps=0 area_bd=185.22e-12 pj_bd=56.58e-6 area_iso=351.67e-12 pj_iso=76.58e-6
xm69 gnd v20gd v20gd ap5g20d1w l=200e-9 w=105e-6 m=24 ad=90.3e-12 as=0 pd=211.72e-6 ps=0 area_bd=185.22e-12 pj_bd=56.58e-6 area_iso=351.67e-12 pj_iso=76.58e-6
xm68 gnd v20gd_i v20gd_i ap5g20d1w l=200e-9 w=105e-6 m=24 ad=90.3e-12 as=0 pd=211.72e-6 ps=0 area_bd=185.22e-12 pj_bd=56.58e-6 area_iso=351.67e-12 pj_iso=76.58e-6
xm78 gnd v20a_cs v20a_cs ap5g20d1w l=200e-9 w=105e-6 m=24 ad=90.3e-12 as=0 pd=211.72e-6 ps=0 area_bd=185.22e-12 pj_bd=56.58e-6 area_iso=351.67e-12 pj_iso=76.58e-6
xm49 gnd v20scl v20scl ap5g20d1w l=200e-9 w=105e-6 m=24 ad=90.3e-12 as=0 pd=211.72e-6 ps=0 area_bd=185.22e-12 pj_bd=56.58e-6 area_iso=351.67e-12 pj_iso=76.58e-6
xm48 gnd v20sda v20sda ap5g20d1w l=200e-9 w=105e-6 m=24 ad=90.3e-12 as=0 pd=211.72e-6 ps=0 area_bd=185.22e-12 pj_bd=56.58e-6 area_iso=351.67e-12 pj_iso=76.58e-6
xm50 gnd v20vin12 v20vin12 ap5g20d1w l=200e-9 w=105e-6 m=24 ad=90.3e-12 as=0 pd=211.72e-6 ps=0 area_bd=185.22e-12 pj_bd=56.58e-6 area_iso=351.67e-12 pj_iso=76.58e-6
xm51 gnd v20dly2 v20dly2 ap5g20d1w l=200e-9 w=105e-6 m=24 ad=90.3e-12 as=0 pd=211.72e-6 ps=0 area_bd=185.22e-12 pj_bd=56.58e-6 area_iso=351.67e-12 pj_iso=76.58e-6
xm52 gnd v20en v20en ap5g20d1w l=200e-9 w=105e-6 m=24 ad=90.3e-12 as=0 pd=211.72e-6 ps=0 area_bd=185.22e-12 pj_bd=56.58e-6 area_iso=351.67e-12 pj_iso=76.58e-6
xm53 gnd v20dly3 v20dly3 ap5g20d1w l=200e-9 w=105e-6 m=24 ad=90.3e-12 as=0 pd=211.72e-6 ps=0 area_bd=185.22e-12 pj_bd=56.58e-6 area_iso=351.67e-12 pj_iso=76.58e-6
xm54 gnd v20vin3 v20vin3 ap5g20d1w l=200e-9 w=105e-6 m=24 ad=90.3e-12 as=0 pd=211.72e-6 ps=0 area_bd=185.22e-12 pj_bd=56.58e-6 area_iso=351.67e-12 pj_iso=76.58e-6
xm55 gnd v20vin_gl v20vin_gl ap5g20d1w l=200e-9 w=105e-6 m=24 ad=90.3e-12 as=0 pd=211.72e-6 ps=0 area_bd=185.22e-12 pj_bd=56.58e-6 area_iso=351.67e-12 pj_iso=76.58e-6
xm56 gnd v20n_cs v20n_cs ap5g20d1w l=200e-9 w=105e-6 m=24 ad=90.3e-12 as=0 pd=211.72e-6 ps=0 area_bd=185.22e-12 pj_bd=56.58e-6 area_iso=351.67e-12 pj_iso=76.58e-6
xm57 gnd v20vgl_gate v20vgl_gate ap5g20d1w l=200e-9 w=105e-6 m=24 ad=90.3e-12 as=0 pd=211.72e-6 ps=0 area_bd=185.22e-12 pj_bd=56.58e-6 area_iso=351.67e-12 pj_iso=76.58e-6
xm58 vn20vgl gnd gnd ap5g20d1w l=200e-9 w=105e-6 m=24 ad=90.3e-12 as=0 pd=211.72e-6 ps=0 area_bd=185.22e-12 pj_bd=56.58e-6 area_iso=351.67e-12 pj_iso=76.58e-6
xm60 vn20vss1 gnd gnd ap5g20d1w l=200e-9 w=105e-6 m=24 ad=90.3e-12 as=0 pd=211.72e-6 ps=0 area_bd=185.22e-12 pj_bd=56.58e-6 area_iso=351.67e-12 pj_iso=76.58e-6
xm59 vn20vss2 gnd gnd ap5g20d1w l=200e-9 w=105e-6 m=24 ad=90.3e-12 as=0 pd=211.72e-6 ps=0 area_bd=185.22e-12 pj_bd=56.58e-6 area_iso=351.67e-12 pj_iso=76.58e-6
xd77 compa gnd gnd ESD5V l=800e-9 w=50e-6 m=10
xd80 p_cs gnd gnd ESD5V l=800e-9 w=50e-6 m=10
xd79 vgh_gate gnd gnd ESD5V l=800e-9 w=50e-6 m=10
xd70 lsvdd_rdy gnd gnd ESD5V l=800e-9 w=50e-6 m=10
xd54 lsaddr<2> gnd gnd ESD5V l=800e-9 w=50e-6 m=10
xd53 lsaddr<1> gnd gnd ESD5V l=800e-9 w=50e-6 m=10
xd52 lsaddr<0> gnd gnd ESD5V l=800e-9 w=50e-6 m=10
xd51 lsdata<7> gnd gnd ESD5V l=800e-9 w=50e-6 m=10
xd50 lsdata<5> gnd gnd ESD5V l=800e-9 w=50e-6 m=10
xd49 lsdata<6> gnd gnd ESD5V l=800e-9 w=50e-6 m=10
xd48 lsdata<4> gnd gnd ESD5V l=800e-9 w=50e-6 m=10
xd47 lsdata<3> gnd gnd ESD5V l=800e-9 w=50e-6 m=10
xd46 lsdata<2> gnd gnd ESD5V l=800e-9 w=50e-6 m=10
xd45 lsdata<1> gnd gnd ESD5V l=800e-9 w=50e-6 m=10
xd44 lsdata<0> gnd gnd ESD5V l=800e-9 w=50e-6 m=10
xd43 lswr gnd gnd ESD5V l=800e-9 w=50e-6 m=10
xd73 fbb3 gnd gnd ESD5V l=800e-9 w=50e-6 m=10
xd75 banksel gnd gnd ESD5V l=800e-9 w=50e-6 m=10
xd76 avdd_gate gnd gnd ESD5V l=800e-9 w=50e-6 m=10
xd71 fbb1 gnd gnd ESD5V l=800e-9 w=50e-6 m=10
xd74 ntc gnd gnd ESD5V l=800e-9 w=50e-6 m=10
xd72 fbb2 gnd gnd ESD5V l=800e-9 w=50e-6 m=10
xd39 vl gnd gnd ESD5V l=800e-9 w=50e-6 m=30
xd41 lsflt gnd gnd ESD5V l=800e-9 w=50e-6 m=10
xd42 discharge gnd gnd ESD5V l=800e-9 w=50e-6 m=10
d65 gnd gnd_vgh pdio5 area=136.5e-12 pj=77.8e-6 m=6
d64 gnd_vgh gnd pdio5 area=136.5e-12 pj=77.8e-6 m=6
d82 gnd_havdd gnd pdio5 area=136.5e-12 pj=77.8e-6 m=6
d67 gnd gnd_avdd pdio5 area=136.5e-12 pj=77.8e-6 m=6
d66 gnd_avdd gnd pdio5 area=136.5e-12 pj=77.8e-6 m=6
d68 gnd gnd_bck2 pdio5 area=136.5e-12 pj=77.8e-6 m=6
d81 gnd gnd_bck3 pdio5 area=136.5e-12 pj=77.8e-6 m=6
d78 gnd_bck3 gnd pdio5 area=136.5e-12 pj=77.8e-6 m=6
d69 gnd_bck2 gnd pdio5 area=136.5e-12 pj=77.8e-6 m=6
d35 gnd gnd_bck1 pdio5 area=136.5e-12 pj=77.8e-6 m=6
d34 gnd_bck1 gnd pdio5 area=136.5e-12 pj=77.8e-6 m=6
d83 gnd gnd_havdd pdio5 area=136.5e-12 pj=77.8e-6 m=6
xd3 v40vgh gnd ESD40V_1 m=2
.ends esd_8972msdie
** End of subcircuit definition.

** Library name: MS0072ZA_PM
** Cell name: na20
** View name: schematic
.subckt na20 in1 in2 q vg vp5
xm0 nd1 in1 vg vg vp5 nchi5_3 l=600e-9 w=600e-9 m=1 ad=396e-15 as=396e-15 pd=2.52e-6 ps=2.52e-6 area_iso=855.712e-12 pj_iso=117.04e-6 area_bd=232.432e-12 pj_bd=61.04e-6 bv_body=40
xm2 q in2 nd1 vg vp5 nchi5_3 l=600e-9 w=600e-9 m=1 ad=396e-15 as=396e-15 pd=2.52e-6 ps=2.52e-6 area_iso=855.712e-12 pj_iso=117.04e-6 area_bd=232.432e-12 pj_bd=61.04e-6 bv_body=40
xm3 q in1 vp5 vp5 pchi5_3 l=600e-9 w=600e-9 m=1 ad=396e-15 as=396e-15 pd=2.52e-6 ps=2.52e-6 area_bd=540.592e-12 pj_bd=93.04e-6 bv_body=40
xm1 q in2 vp5 vp5 pchi5_3 l=600e-9 w=600e-9 m=1 ad=396e-15 as=396e-15 pd=2.52e-6 ps=2.52e-6 area_bd=540.592e-12 pj_bd=93.04e-6 bv_body=40
.ends na20
** End of subcircuit definition.

** Library name: MS0072ZA_PM
** Cell name: invww
** View name: schematic
.subckt invww in q vg vp5
xm1 q in vp5 vp5 pchi5_3 l=8e-6 w=600e-9 m=1 ad=396e-15 as=396e-15 pd=2.52e-6 ps=2.52e-6 area_bd=707.832e-12 pj_bd=107.84e-6 bv_body=40
xm0 q in vg vg vp5 nchi5_3 l=20e-6 w=600e-9 m=1 ad=396e-15 as=396e-15 pd=2.52e-6 ps=2.52e-6 area_iso=1.410552e-9 pj_iso=155.84e-6 area_bd=515.672e-12 pj_bd=99.84e-6 bv_body=40
.ends invww
** End of subcircuit definition.

** Library name: MS0072ZA_PM
** Cell name: MS72vssinv0
** View name: schematic
.subckt MS72vssinv0 in q vg vp5
xm0 q in vg vg vp5 nchi5_3 l=600e-9 w=600e-9 m=1 ad=396e-15 as=396e-15 pd=2.52e-6 ps=2.52e-6 area_iso=855.712e-12 pj_iso=117.04e-6 area_bd=232.432e-12 pj_bd=61.04e-6 bv_body=40
xm1 q in vp5 vp5 pchi5_3 l=600e-9 w=600e-9 m=1 ad=396e-15 as=396e-15 pd=2.52e-6 ps=2.52e-6 area_bd=540.592e-12 pj_bd=93.04e-6 bv_body=40
.ends MS72vssinv0
** End of subcircuit definition.

** Library name: MS0072ZA_PM
** Cell name: Rdum
** View name: schematic
.subckt Rdum neg pos
.subckt xr1_subckt pos neg 
**Parallel configuration of xr1
xr1_1__dmy0  pos  neg rlpp1500rpo l=8e-6 w=2e-6 m=2
xr1_2__dmy0  pos  neg rlpp1500rpo l=8e-6 w=2e-6 m=2
.ends xr1_subckt
xr1 neg pos xr1_subckt
**End of xr1

.subckt xr0_subckt pos neg 
**Series configuration of xr0
xr0_1__dmy0   pos xr0_1__dmy0  rlpp1500rpo l=8e-6 w=2e-6 m=1
xr0_2__dmy0   xr0_1__dmy0 xr0_2__dmy0  rlpp1500rpo l=8e-6 w=2e-6 m=1
xr0_3__dmy0   xr0_2__dmy0 xr0_3__dmy0  rlpp1500rpo l=8e-6 w=2e-6 m=1
xr0_4__dmy0   xr0_3__dmy0 xr0_4__dmy0  rlpp1500rpo l=8e-6 w=2e-6 m=1
xr0_5__dmy0   xr0_4__dmy0 xr0_5__dmy0  rlpp1500rpo l=8e-6 w=2e-6 m=1
xr0_6__dmy0   xr0_5__dmy0 xr0_6__dmy0  rlpp1500rpo l=8e-6 w=2e-6 m=1
xr0_7__dmy0   xr0_6__dmy0 xr0_7__dmy0  rlpp1500rpo l=8e-6 w=2e-6 m=1
xr0_8__dmy0   xr0_7__dmy0 neg  rlpp1500rpo l=8e-6 w=2e-6 m=1
.ends xr0_subckt
xr0 neg neg xr0_subckt
**End of xr0

.subckt xrbot1q_subckt pos neg 
xrbot1q_1__dmy0  pos  neg rlpp1500rpo l=8e-6 w=2e-6 m=7
.ends xrbot1q_subckt
xrbot1q neg neg xrbot1q_subckt
**End of xrbot1q

.ends Rdum
** End of subcircuit definition.

** Library name: MS0072ZA_PM
** Cell name: RBOT1
** View name: schematic
.subckt RBOT1 neg pos
.subckt xr1_subckt pos neg 
**Series configuration of xr1
xr1_1__dmy0   pos xr1_1__dmy0  rlpp1500rpo l=8e-6 w=2e-6 m=1
xr1_2__dmy0   xr1_1__dmy0 xr1_2__dmy0  rlpp1500rpo l=8e-6 w=2e-6 m=1
xr1_3__dmy0   xr1_2__dmy0 xr1_3__dmy0  rlpp1500rpo l=8e-6 w=2e-6 m=1
xr1_4__dmy0   xr1_3__dmy0 xr1_4__dmy0  rlpp1500rpo l=8e-6 w=2e-6 m=1
xr1_5__dmy0   xr1_4__dmy0 xr1_5__dmy0  rlpp1500rpo l=8e-6 w=2e-6 m=1
xr1_6__dmy0   xr1_5__dmy0 xr1_6__dmy0  rlpp1500rpo l=8e-6 w=2e-6 m=1
xr1_7__dmy0   xr1_6__dmy0 xr1_7__dmy0  rlpp1500rpo l=8e-6 w=2e-6 m=1
xr1_8__dmy0   xr1_7__dmy0 xr1_8__dmy0  rlpp1500rpo l=8e-6 w=2e-6 m=1
xr1_9__dmy0   xr1_8__dmy0 xr1_9__dmy0  rlpp1500rpo l=8e-6 w=2e-6 m=1
xr1_10__dmy0   xr1_9__dmy0 xr1_10__dmy0  rlpp1500rpo l=8e-6 w=2e-6 m=1
xr1_11__dmy0   xr1_10__dmy0 xr1_11__dmy0  rlpp1500rpo l=8e-6 w=2e-6 m=1
xr1_12__dmy0   xr1_11__dmy0 xr1_12__dmy0  rlpp1500rpo l=8e-6 w=2e-6 m=1
xr1_13__dmy0   xr1_12__dmy0 xr1_13__dmy0  rlpp1500rpo l=8e-6 w=2e-6 m=1
xr1_14__dmy0   xr1_13__dmy0 xr1_14__dmy0  rlpp1500rpo l=8e-6 w=2e-6 m=1
xr1_15__dmy0   xr1_14__dmy0 xr1_15__dmy0  rlpp1500rpo l=8e-6 w=2e-6 m=1
xr1_16__dmy0   xr1_15__dmy0 xr1_16__dmy0  rlpp1500rpo l=8e-6 w=2e-6 m=1
xr1_17__dmy0   xr1_16__dmy0 xr1_17__dmy0  rlpp1500rpo l=8e-6 w=2e-6 m=1
xr1_18__dmy0   xr1_17__dmy0 xr1_18__dmy0  rlpp1500rpo l=8e-6 w=2e-6 m=1
xr1_19__dmy0   xr1_18__dmy0 xr1_19__dmy0  rlpp1500rpo l=8e-6 w=2e-6 m=1
xr1_20__dmy0   xr1_19__dmy0 xr1_20__dmy0  rlpp1500rpo l=8e-6 w=2e-6 m=1
xr1_21__dmy0   xr1_20__dmy0 xr1_21__dmy0  rlpp1500rpo l=8e-6 w=2e-6 m=1
xr1_22__dmy0   xr1_21__dmy0 xr1_22__dmy0  rlpp1500rpo l=8e-6 w=2e-6 m=1
xr1_23__dmy0   xr1_22__dmy0 xr1_23__dmy0  rlpp1500rpo l=8e-6 w=2e-6 m=1
xr1_24__dmy0   xr1_23__dmy0 xr1_24__dmy0  rlpp1500rpo l=8e-6 w=2e-6 m=1
xr1_25__dmy0   xr1_24__dmy0 xr1_25__dmy0  rlpp1500rpo l=8e-6 w=2e-6 m=1
xr1_26__dmy0   xr1_25__dmy0 xr1_26__dmy0  rlpp1500rpo l=8e-6 w=2e-6 m=1
xr1_27__dmy0   xr1_26__dmy0 xr1_27__dmy0  rlpp1500rpo l=8e-6 w=2e-6 m=1
xr1_28__dmy0   xr1_27__dmy0 xr1_28__dmy0  rlpp1500rpo l=8e-6 w=2e-6 m=1
xr1_29__dmy0   xr1_28__dmy0 xr1_29__dmy0  rlpp1500rpo l=8e-6 w=2e-6 m=1
xr1_30__dmy0   xr1_29__dmy0 xr1_30__dmy0  rlpp1500rpo l=8e-6 w=2e-6 m=1
xr1_31__dmy0   xr1_30__dmy0 xr1_31__dmy0  rlpp1500rpo l=8e-6 w=2e-6 m=1
xr1_32__dmy0   xr1_31__dmy0 xr1_32__dmy0  rlpp1500rpo l=8e-6 w=2e-6 m=1
xr1_33__dmy0   xr1_32__dmy0 xr1_33__dmy0  rlpp1500rpo l=8e-6 w=2e-6 m=1
xr1_34__dmy0   xr1_33__dmy0 xr1_34__dmy0  rlpp1500rpo l=8e-6 w=2e-6 m=1
xr1_35__dmy0   xr1_34__dmy0 xr1_35__dmy0  rlpp1500rpo l=8e-6 w=2e-6 m=1
xr1_36__dmy0   xr1_35__dmy0 xr1_36__dmy0  rlpp1500rpo l=8e-6 w=2e-6 m=1
xr1_37__dmy0   xr1_36__dmy0 xr1_37__dmy0  rlpp1500rpo l=8e-6 w=2e-6 m=1
xr1_38__dmy0   xr1_37__dmy0 xr1_38__dmy0  rlpp1500rpo l=8e-6 w=2e-6 m=1
xr1_39__dmy0   xr1_38__dmy0 xr1_39__dmy0  rlpp1500rpo l=8e-6 w=2e-6 m=1
xr1_40__dmy0   xr1_39__dmy0 xr1_40__dmy0  rlpp1500rpo l=8e-6 w=2e-6 m=1
xr1_41__dmy0   xr1_40__dmy0 neg  rlpp1500rpo l=8e-6 w=2e-6 m=1
.ends xr1_subckt
xr1 net4 pos xr1_subckt
**End of xr1

.subckt xr0_subckt pos neg 
**Series configuration of xr0
xr0_1__dmy0   pos xr0_1__dmy0  rlpp1500rpo l=8e-6 w=2e-6 m=1
xr0_2__dmy0   xr0_1__dmy0 xr0_2__dmy0  rlpp1500rpo l=8e-6 w=2e-6 m=1
xr0_3__dmy0   xr0_2__dmy0 xr0_3__dmy0  rlpp1500rpo l=8e-6 w=2e-6 m=1
xr0_4__dmy0   xr0_3__dmy0 xr0_4__dmy0  rlpp1500rpo l=8e-6 w=2e-6 m=1
xr0_5__dmy0   xr0_4__dmy0 xr0_5__dmy0  rlpp1500rpo l=8e-6 w=2e-6 m=1
xr0_6__dmy0   xr0_5__dmy0 xr0_6__dmy0  rlpp1500rpo l=8e-6 w=2e-6 m=1
xr0_7__dmy0   xr0_6__dmy0 xr0_7__dmy0  rlpp1500rpo l=8e-6 w=2e-6 m=1
xr0_8__dmy0   xr0_7__dmy0 xr0_8__dmy0  rlpp1500rpo l=8e-6 w=2e-6 m=1
xr0_9__dmy0   xr0_8__dmy0 xr0_9__dmy0  rlpp1500rpo l=8e-6 w=2e-6 m=1
xr0_10__dmy0   xr0_9__dmy0 xr0_10__dmy0  rlpp1500rpo l=8e-6 w=2e-6 m=1
xr0_11__dmy0   xr0_10__dmy0 xr0_11__dmy0  rlpp1500rpo l=8e-6 w=2e-6 m=1
xr0_12__dmy0   xr0_11__dmy0 xr0_12__dmy0  rlpp1500rpo l=8e-6 w=2e-6 m=1
xr0_13__dmy0   xr0_12__dmy0 xr0_13__dmy0  rlpp1500rpo l=8e-6 w=2e-6 m=1
xr0_14__dmy0   xr0_13__dmy0 xr0_14__dmy0  rlpp1500rpo l=8e-6 w=2e-6 m=1
xr0_15__dmy0   xr0_14__dmy0 xr0_15__dmy0  rlpp1500rpo l=8e-6 w=2e-6 m=1
xr0_16__dmy0   xr0_15__dmy0 xr0_16__dmy0  rlpp1500rpo l=8e-6 w=2e-6 m=1
xr0_17__dmy0   xr0_16__dmy0 xr0_17__dmy0  rlpp1500rpo l=8e-6 w=2e-6 m=1
xr0_18__dmy0   xr0_17__dmy0 xr0_18__dmy0  rlpp1500rpo l=8e-6 w=2e-6 m=1
xr0_19__dmy0   xr0_18__dmy0 xr0_19__dmy0  rlpp1500rpo l=8e-6 w=2e-6 m=1
xr0_20__dmy0   xr0_19__dmy0 xr0_20__dmy0  rlpp1500rpo l=8e-6 w=2e-6 m=1
xr0_21__dmy0   xr0_20__dmy0 xr0_21__dmy0  rlpp1500rpo l=8e-6 w=2e-6 m=1
xr0_22__dmy0   xr0_21__dmy0 xr0_22__dmy0  rlpp1500rpo l=8e-6 w=2e-6 m=1
xr0_23__dmy0   xr0_22__dmy0 xr0_23__dmy0  rlpp1500rpo l=8e-6 w=2e-6 m=1
xr0_24__dmy0   xr0_23__dmy0 xr0_24__dmy0  rlpp1500rpo l=8e-6 w=2e-6 m=1
xr0_25__dmy0   xr0_24__dmy0 xr0_25__dmy0  rlpp1500rpo l=8e-6 w=2e-6 m=1
xr0_26__dmy0   xr0_25__dmy0 xr0_26__dmy0  rlpp1500rpo l=8e-6 w=2e-6 m=1
xr0_27__dmy0   xr0_26__dmy0 xr0_27__dmy0  rlpp1500rpo l=8e-6 w=2e-6 m=1
xr0_28__dmy0   xr0_27__dmy0 xr0_28__dmy0  rlpp1500rpo l=8e-6 w=2e-6 m=1
xr0_29__dmy0   xr0_28__dmy0 xr0_29__dmy0  rlpp1500rpo l=8e-6 w=2e-6 m=1
xr0_30__dmy0   xr0_29__dmy0 xr0_30__dmy0  rlpp1500rpo l=8e-6 w=2e-6 m=1
xr0_31__dmy0   xr0_30__dmy0 xr0_31__dmy0  rlpp1500rpo l=8e-6 w=2e-6 m=1
xr0_32__dmy0   xr0_31__dmy0 xr0_32__dmy0  rlpp1500rpo l=8e-6 w=2e-6 m=1
xr0_33__dmy0   xr0_32__dmy0 xr0_33__dmy0  rlpp1500rpo l=8e-6 w=2e-6 m=1
xr0_34__dmy0   xr0_33__dmy0 xr0_34__dmy0  rlpp1500rpo l=8e-6 w=2e-6 m=1
xr0_35__dmy0   xr0_34__dmy0 xr0_35__dmy0  rlpp1500rpo l=8e-6 w=2e-6 m=1
xr0_36__dmy0   xr0_35__dmy0 xr0_36__dmy0  rlpp1500rpo l=8e-6 w=2e-6 m=1
xr0_37__dmy0   xr0_36__dmy0 xr0_37__dmy0  rlpp1500rpo l=8e-6 w=2e-6 m=1
xr0_38__dmy0   xr0_37__dmy0 xr0_38__dmy0  rlpp1500rpo l=8e-6 w=2e-6 m=1
xr0_39__dmy0   xr0_38__dmy0 xr0_39__dmy0  rlpp1500rpo l=8e-6 w=2e-6 m=1
xr0_40__dmy0   xr0_39__dmy0 xr0_40__dmy0  rlpp1500rpo l=8e-6 w=2e-6 m=1
xr0_41__dmy0   xr0_40__dmy0 neg  rlpp1500rpo l=8e-6 w=2e-6 m=1
.ends xr0_subckt
xr0 net5 net4 xr0_subckt
**End of xr0

.subckt xrbot1q_subckt pos neg 
**Series configuration of xrbot1q
xrbot1q_1__dmy0   pos xrbot1q_1__dmy0  rlpp1500rpo l=8e-6 w=2e-6 m=1
xrbot1q_2__dmy0   xrbot1q_1__dmy0 xrbot1q_2__dmy0  rlpp1500rpo l=8e-6 w=2e-6 m=1
xrbot1q_3__dmy0   xrbot1q_2__dmy0 xrbot1q_3__dmy0  rlpp1500rpo l=8e-6 w=2e-6 m=1
xrbot1q_4__dmy0   xrbot1q_3__dmy0 xrbot1q_4__dmy0  rlpp1500rpo l=8e-6 w=2e-6 m=1
xrbot1q_5__dmy0   xrbot1q_4__dmy0 xrbot1q_5__dmy0  rlpp1500rpo l=8e-6 w=2e-6 m=1
xrbot1q_6__dmy0   xrbot1q_5__dmy0 xrbot1q_6__dmy0  rlpp1500rpo l=8e-6 w=2e-6 m=1
xrbot1q_7__dmy0   xrbot1q_6__dmy0 xrbot1q_7__dmy0  rlpp1500rpo l=8e-6 w=2e-6 m=1
xrbot1q_8__dmy0   xrbot1q_7__dmy0 xrbot1q_8__dmy0  rlpp1500rpo l=8e-6 w=2e-6 m=1
xrbot1q_9__dmy0   xrbot1q_8__dmy0 xrbot1q_9__dmy0  rlpp1500rpo l=8e-6 w=2e-6 m=1
xrbot1q_10__dmy0   xrbot1q_9__dmy0 xrbot1q_10__dmy0  rlpp1500rpo l=8e-6 w=2e-6 m=1
xrbot1q_11__dmy0   xrbot1q_10__dmy0 xrbot1q_11__dmy0  rlpp1500rpo l=8e-6 w=2e-6 m=1
xrbot1q_12__dmy0   xrbot1q_11__dmy0 xrbot1q_12__dmy0  rlpp1500rpo l=8e-6 w=2e-6 m=1
xrbot1q_13__dmy0   xrbot1q_12__dmy0 xrbot1q_13__dmy0  rlpp1500rpo l=8e-6 w=2e-6 m=1
xrbot1q_14__dmy0   xrbot1q_13__dmy0 xrbot1q_14__dmy0  rlpp1500rpo l=8e-6 w=2e-6 m=1
xrbot1q_15__dmy0   xrbot1q_14__dmy0 xrbot1q_15__dmy0  rlpp1500rpo l=8e-6 w=2e-6 m=1
xrbot1q_16__dmy0   xrbot1q_15__dmy0 xrbot1q_16__dmy0  rlpp1500rpo l=8e-6 w=2e-6 m=1
xrbot1q_17__dmy0   xrbot1q_16__dmy0 xrbot1q_17__dmy0  rlpp1500rpo l=8e-6 w=2e-6 m=1
xrbot1q_18__dmy0   xrbot1q_17__dmy0 xrbot1q_18__dmy0  rlpp1500rpo l=8e-6 w=2e-6 m=1
xrbot1q_19__dmy0   xrbot1q_18__dmy0 xrbot1q_19__dmy0  rlpp1500rpo l=8e-6 w=2e-6 m=1
xrbot1q_20__dmy0   xrbot1q_19__dmy0 xrbot1q_20__dmy0  rlpp1500rpo l=8e-6 w=2e-6 m=1
xrbot1q_21__dmy0   xrbot1q_20__dmy0 xrbot1q_21__dmy0  rlpp1500rpo l=8e-6 w=2e-6 m=1
xrbot1q_22__dmy0   xrbot1q_21__dmy0 xrbot1q_22__dmy0  rlpp1500rpo l=8e-6 w=2e-6 m=1
xrbot1q_23__dmy0   xrbot1q_22__dmy0 xrbot1q_23__dmy0  rlpp1500rpo l=8e-6 w=2e-6 m=1
xrbot1q_24__dmy0   xrbot1q_23__dmy0 xrbot1q_24__dmy0  rlpp1500rpo l=8e-6 w=2e-6 m=1
xrbot1q_25__dmy0   xrbot1q_24__dmy0 xrbot1q_25__dmy0  rlpp1500rpo l=8e-6 w=2e-6 m=1
xrbot1q_26__dmy0   xrbot1q_25__dmy0 xrbot1q_26__dmy0  rlpp1500rpo l=8e-6 w=2e-6 m=1
xrbot1q_27__dmy0   xrbot1q_26__dmy0 xrbot1q_27__dmy0  rlpp1500rpo l=8e-6 w=2e-6 m=1
xrbot1q_28__dmy0   xrbot1q_27__dmy0 xrbot1q_28__dmy0  rlpp1500rpo l=8e-6 w=2e-6 m=1
xrbot1q_29__dmy0   xrbot1q_28__dmy0 xrbot1q_29__dmy0  rlpp1500rpo l=8e-6 w=2e-6 m=1
xrbot1q_30__dmy0   xrbot1q_29__dmy0 xrbot1q_30__dmy0  rlpp1500rpo l=8e-6 w=2e-6 m=1
xrbot1q_31__dmy0   xrbot1q_30__dmy0 xrbot1q_31__dmy0  rlpp1500rpo l=8e-6 w=2e-6 m=1
xrbot1q_32__dmy0   xrbot1q_31__dmy0 xrbot1q_32__dmy0  rlpp1500rpo l=8e-6 w=2e-6 m=1
xrbot1q_33__dmy0   xrbot1q_32__dmy0 xrbot1q_33__dmy0  rlpp1500rpo l=8e-6 w=2e-6 m=1
xrbot1q_34__dmy0   xrbot1q_33__dmy0 xrbot1q_34__dmy0  rlpp1500rpo l=8e-6 w=2e-6 m=1
xrbot1q_35__dmy0   xrbot1q_34__dmy0 xrbot1q_35__dmy0  rlpp1500rpo l=8e-6 w=2e-6 m=1
xrbot1q_36__dmy0   xrbot1q_35__dmy0 xrbot1q_36__dmy0  rlpp1500rpo l=8e-6 w=2e-6 m=1
xrbot1q_37__dmy0   xrbot1q_36__dmy0 xrbot1q_37__dmy0  rlpp1500rpo l=8e-6 w=2e-6 m=1
xrbot1q_38__dmy0   xrbot1q_37__dmy0 xrbot1q_38__dmy0  rlpp1500rpo l=8e-6 w=2e-6 m=1
xrbot1q_39__dmy0   xrbot1q_38__dmy0 xrbot1q_39__dmy0  rlpp1500rpo l=8e-6 w=2e-6 m=1
xrbot1q_40__dmy0   xrbot1q_39__dmy0 xrbot1q_40__dmy0  rlpp1500rpo l=8e-6 w=2e-6 m=1
xrbot1q_41__dmy0   xrbot1q_40__dmy0 xrbot1q_41__dmy0  rlpp1500rpo l=8e-6 w=2e-6 m=1
xrbot1q_42__dmy0   xrbot1q_41__dmy0 neg  rlpp1500rpo l=8e-6 w=2e-6 m=1
.ends xrbot1q_subckt
xrbot1q neg net5 xrbot1q_subckt
**End of xrbot1q

.ends RBOT1
** End of subcircuit definition.

** Library name: MS0072ZA_PM
** Cell name: MS72vssna30
** View name: schematic
.subckt MS72vssna30 in1 in2 in3 q vg vp5
xm3 q in2 vp5 vp5 pchi5_3 l=600e-9 w=600e-9 m=1 ad=396e-15 as=396e-15 pd=2.52e-6 ps=2.52e-6 area_bd=540.592e-12 pj_bd=93.04e-6 bv_body=40
xm5 q in1 vp5 vp5 pchi5_3 l=600e-9 w=600e-9 m=1 ad=396e-15 as=396e-15 pd=2.52e-6 ps=2.52e-6 area_bd=540.592e-12 pj_bd=93.04e-6 bv_body=40
xm1 q in3 vp5 vp5 pchi5_3 l=600e-9 w=600e-9 m=1 ad=396e-15 as=396e-15 pd=2.52e-6 ps=2.52e-6 area_bd=540.592e-12 pj_bd=93.04e-6 bv_body=40
xm0 nd1 in1 vg vg vp5 nchi5_3 l=600e-9 w=600e-9 m=1 ad=396e-15 as=396e-15 pd=2.52e-6 ps=2.52e-6 area_iso=855.712e-12 pj_iso=117.04e-6 area_bd=232.432e-12 pj_bd=61.04e-6 bv_body=40
xm2 nd2 in2 nd1 vg vp5 nchi5_3 l=600e-9 w=600e-9 m=1 ad=396e-15 as=396e-15 pd=2.52e-6 ps=2.52e-6 area_iso=855.712e-12 pj_iso=117.04e-6 area_bd=232.432e-12 pj_bd=61.04e-6 bv_body=40
xm4 q in3 nd2 vg vp5 nchi5_3 l=600e-9 w=600e-9 m=1 ad=396e-15 as=396e-15 pd=2.52e-6 ps=2.52e-6 area_iso=855.712e-12 pj_iso=117.04e-6 area_bd=232.432e-12 pj_bd=61.04e-6 bv_body=40
.ends MS72vssna30
** End of subcircuit definition.

** Library name: MS0072ZA_PM
** Cell name: MS72decode3to8
** View name: schematic
.subckt MS72decode3to8 g v i<2> i<1> i<0> o<7> o<6> o<5> o<4> o<3> o<2> o<1> o<0>
xi10 i<2> i<1> ib<0> net0145 g v MS72vssna30
xi0 ib<2> ib<1> ib<0> net0151 g v MS72vssna30
xi6 i<2> ib<1> i<0> net0157 g v MS72vssna30
xi12 ib<2> i<1> i<0> net0163 g v MS72vssna30
xi8 ib<2> i<1> ib<0> net0169 g v MS72vssna30
xi2 i<2> ib<1> ib<0> net0175 g v MS72vssna30
xi14 i<2> i<1> i<0> net0181 g v MS72vssna30
xi4 ib<2> ib<1> i<0> net0187 g v MS72vssna30
xi125<2> i<2> ib<2> g v MS72vssinv0
xi125<1> i<1> ib<1> g v MS72vssinv0
xi125<0> i<0> ib<0> g v MS72vssinv0
xi15 net0181 o<7> g v MS72vssinv0
xi11 net0145 o<6> g v MS72vssinv0
xi3 net0175 o<4> g v MS72vssinv0
xi13 net0163 o<3> g v MS72vssinv0
xi1 net0151 o<0> g v MS72vssinv0
xi7 net0157 o<5> g v MS72vssinv0
xi5 net0187 o<1> g v MS72vssinv0
xi9 net0169 o<2> g v MS72vssinv0
.ends MS72decode3to8
** End of subcircuit definition.

** Library name: MS0072ZA_PM
** Cell name: MS72vssFBres8
** View name: schematic
.subckt MS72vssFBres8 neg pos rt<7> rt<6> rt<5> rt<4> rt<3> rt<2> rt<1>
.subckt xr0_subckt pos neg 
**Parallel configuration of xr0
xr0_1__dmy0  pos  neg rlpp1500rpo l=8e-6 w=2e-6 m=1
xr0_2__dmy0  pos  neg rlpp1500rpo l=8e-6 w=2e-6 m=1
xr0_3__dmy0  pos  neg rlpp1500rpo l=8e-6 w=2e-6 m=1
xr0_4__dmy0  pos  neg rlpp1500rpo l=8e-6 w=2e-6 m=1
xr0_5__dmy0  pos  neg rlpp1500rpo l=8e-6 w=2e-6 m=1
xr0_6__dmy0  pos  neg rlpp1500rpo l=8e-6 w=2e-6 m=1
xr0_7__dmy0  pos  neg rlpp1500rpo l=8e-6 w=2e-6 m=1
xr0_8__dmy0  pos  neg rlpp1500rpo l=8e-6 w=2e-6 m=1
.ends xr0_subckt
xr0 pos rt<1> xr0_subckt
**End of xr0

.subckt xr4_subckt pos neg 
**Parallel configuration of xr4
xr4_1__dmy0  pos  neg rlpp1500rpo l=8e-6 w=2e-6 m=1
xr4_2__dmy0  pos  neg rlpp1500rpo l=8e-6 w=2e-6 m=1
xr4_3__dmy0  pos  neg rlpp1500rpo l=8e-6 w=2e-6 m=1
xr4_4__dmy0  pos  neg rlpp1500rpo l=8e-6 w=2e-6 m=1
xr4_5__dmy0  pos  neg rlpp1500rpo l=8e-6 w=2e-6 m=1
xr4_6__dmy0  pos  neg rlpp1500rpo l=8e-6 w=2e-6 m=1
xr4_7__dmy0  pos  neg rlpp1500rpo l=8e-6 w=2e-6 m=1
xr4_8__dmy0  pos  neg rlpp1500rpo l=8e-6 w=2e-6 m=1
.ends xr4_subckt
xr4 rt<4> rt<5> xr4_subckt
**End of xr4

.subckt xr3_subckt pos neg 
**Parallel configuration of xr3
xr3_1__dmy0  pos  neg rlpp1500rpo l=8e-6 w=2e-6 m=1
xr3_2__dmy0  pos  neg rlpp1500rpo l=8e-6 w=2e-6 m=1
xr3_3__dmy0  pos  neg rlpp1500rpo l=8e-6 w=2e-6 m=1
xr3_4__dmy0  pos  neg rlpp1500rpo l=8e-6 w=2e-6 m=1
xr3_5__dmy0  pos  neg rlpp1500rpo l=8e-6 w=2e-6 m=1
xr3_6__dmy0  pos  neg rlpp1500rpo l=8e-6 w=2e-6 m=1
xr3_7__dmy0  pos  neg rlpp1500rpo l=8e-6 w=2e-6 m=1
xr3_8__dmy0  pos  neg rlpp1500rpo l=8e-6 w=2e-6 m=1
.ends xr3_subckt
xr3 rt<3> rt<4> xr3_subckt
**End of xr3

.subckt xr6_subckt pos neg 
**Parallel configuration of xr6
xr6_1__dmy0  pos  neg rlpp1500rpo l=8e-6 w=2e-6 m=1
xr6_2__dmy0  pos  neg rlpp1500rpo l=8e-6 w=2e-6 m=1
xr6_3__dmy0  pos  neg rlpp1500rpo l=8e-6 w=2e-6 m=1
xr6_4__dmy0  pos  neg rlpp1500rpo l=8e-6 w=2e-6 m=1
xr6_5__dmy0  pos  neg rlpp1500rpo l=8e-6 w=2e-6 m=1
xr6_6__dmy0  pos  neg rlpp1500rpo l=8e-6 w=2e-6 m=1
xr6_7__dmy0  pos  neg rlpp1500rpo l=8e-6 w=2e-6 m=1
xr6_8__dmy0  pos  neg rlpp1500rpo l=8e-6 w=2e-6 m=1
.ends xr6_subckt
xr6 rt<6> rt<7> xr6_subckt
**End of xr6

.subckt xr1_subckt pos neg 
**Parallel configuration of xr1
xr1_1__dmy0  pos  neg rlpp1500rpo l=8e-6 w=2e-6 m=1
xr1_2__dmy0  pos  neg rlpp1500rpo l=8e-6 w=2e-6 m=1
xr1_3__dmy0  pos  neg rlpp1500rpo l=8e-6 w=2e-6 m=1
xr1_4__dmy0  pos  neg rlpp1500rpo l=8e-6 w=2e-6 m=1
xr1_5__dmy0  pos  neg rlpp1500rpo l=8e-6 w=2e-6 m=1
xr1_6__dmy0  pos  neg rlpp1500rpo l=8e-6 w=2e-6 m=1
xr1_7__dmy0  pos  neg rlpp1500rpo l=8e-6 w=2e-6 m=1
xr1_8__dmy0  pos  neg rlpp1500rpo l=8e-6 w=2e-6 m=1
.ends xr1_subckt
xr1 rt<1> rt<2> xr1_subckt
**End of xr1

.subckt xr7_subckt pos neg 
**Parallel configuration of xr7
xr7_1__dmy0  pos  neg rlpp1500rpo l=8e-6 w=2e-6 m=1
xr7_2__dmy0  pos  neg rlpp1500rpo l=8e-6 w=2e-6 m=1
xr7_3__dmy0  pos  neg rlpp1500rpo l=8e-6 w=2e-6 m=1
xr7_4__dmy0  pos  neg rlpp1500rpo l=8e-6 w=2e-6 m=1
xr7_5__dmy0  pos  neg rlpp1500rpo l=8e-6 w=2e-6 m=1
xr7_6__dmy0  pos  neg rlpp1500rpo l=8e-6 w=2e-6 m=1
xr7_7__dmy0  pos  neg rlpp1500rpo l=8e-6 w=2e-6 m=1
xr7_8__dmy0  pos  neg rlpp1500rpo l=8e-6 w=2e-6 m=1
.ends xr7_subckt
xr7 rt<7> neg xr7_subckt
**End of xr7

.subckt xr2_subckt pos neg 
**Parallel configuration of xr2
xr2_1__dmy0  pos  neg rlpp1500rpo l=8e-6 w=2e-6 m=1
xr2_2__dmy0  pos  neg rlpp1500rpo l=8e-6 w=2e-6 m=1
xr2_3__dmy0  pos  neg rlpp1500rpo l=8e-6 w=2e-6 m=1
xr2_4__dmy0  pos  neg rlpp1500rpo l=8e-6 w=2e-6 m=1
xr2_5__dmy0  pos  neg rlpp1500rpo l=8e-6 w=2e-6 m=1
xr2_6__dmy0  pos  neg rlpp1500rpo l=8e-6 w=2e-6 m=1
xr2_7__dmy0  pos  neg rlpp1500rpo l=8e-6 w=2e-6 m=1
xr2_8__dmy0  pos  neg rlpp1500rpo l=8e-6 w=2e-6 m=1
.ends xr2_subckt
xr2 rt<2> rt<3> xr2_subckt
**End of xr2

.subckt xr5_subckt pos neg 
**Parallel configuration of xr5
xr5_1__dmy0  pos  neg rlpp1500rpo l=8e-6 w=2e-6 m=1
xr5_2__dmy0  pos  neg rlpp1500rpo l=8e-6 w=2e-6 m=1
xr5_3__dmy0  pos  neg rlpp1500rpo l=8e-6 w=2e-6 m=1
xr5_4__dmy0  pos  neg rlpp1500rpo l=8e-6 w=2e-6 m=1
xr5_5__dmy0  pos  neg rlpp1500rpo l=8e-6 w=2e-6 m=1
xr5_6__dmy0  pos  neg rlpp1500rpo l=8e-6 w=2e-6 m=1
xr5_7__dmy0  pos  neg rlpp1500rpo l=8e-6 w=2e-6 m=1
xr5_8__dmy0  pos  neg rlpp1500rpo l=8e-6 w=2e-6 m=1
.ends xr5_subckt
xr5 rt<5> rt<6> xr5_subckt
**End of xr5

.ends MS72vssFBres8
** End of subcircuit definition.

** Library name: MS0072ZA_PM
** Cell name: MS72vsstx0n
** View name: schematic
.subckt MS72vsstx0n a b s vg vp5
xi0 s net24 vg vp5 MS72vssinv0
xm1 a net24 b vp5 pchi5_3 l=600e-9 w=600e-9 m=1 ad=396e-15 as=396e-15 pd=2.52e-6 ps=2.52e-6 area_bd=540.592e-12 pj_bd=93.04e-6 bv_body=40
xm0 a s b vg vp5 nchi5_3 l=600e-9 w=600e-9 m=1 ad=396e-15 as=396e-15 pd=2.52e-6 ps=2.52e-6 area_iso=855.712e-12 pj_iso=117.04e-6 area_bd=232.432e-12 pj_bd=61.04e-6 bv_body=40
.ends MS72vsstx0n
** End of subcircuit definition.

** Library name: MS0072ZA_PM
** Cell name: MS72vssFB
** View name: schematic
.subckt MS72vssFB fb g ref v vsss nvmvsst<2> nvmvsst<1> nvmvsst<0>
xi124 nvmvsst<2> nvmvsstb<2> g v MS72vssinv0
xr0 g g Rdum
xr31 vsss net0287 RBOT1
xdecode g v nvmvsstb<2> nvmvsst<1> nvmvsst<0> s<7> s<6> s<5> s<4> s<3> s<2> s<1> s<0> MS72decode3to8
xm29 fb g g g v nchi5_3 l=500e-9 w=20e-6 m=1 ad=13.2e-12 as=13.2e-12 pd=41.32e-6 ps=41.32e-6 area_iso=1.43136e-9 pj_iso=155.64e-6 area_bd=537.88e-12 pj_bd=99.64e-6 bv_body=40
xi125 rt<8> rt<0> rt<7> rt<6> rt<5> rt<4> rt<3> rt<2> rt<1> MS72vssFBres8
xd0 net0120 g sdio6 area=58e-12 pj=120e-6 m=1
xifb<7> rt<7> fb s<7> g v MS72vsstx0n
xifb<6> rt<6> fb s<6> g v MS72vsstx0n
xifb<5> rt<5> fb s<5> g v MS72vsstx0n
xifb<4> rt<4> fb s<4> g v MS72vsstx0n
xifb<3> rt<3> fb s<3> g v MS72vsstx0n
xifb<2> rt<2> fb s<2> g v MS72vsstx0n
xifb<1> rt<1> fb s<1> g v MS72vsstx0n
xifb<0> rt<0> fb s<0> g v MS72vsstx0n
.subckt xrtop2_subckt pos neg 
**Parallel configuration of xrtop2
xrtop2_1__dmy0  pos  neg rlpp1500rpo l=8e-6 w=2e-6 m=1
xrtop2_2__dmy0  pos  neg rlpp1500rpo l=8e-6 w=2e-6 m=1
.ends xrtop2_subckt
xrtop2 rt<0> net021 xrtop2_subckt
**End of xrtop2

.subckt xr15_subckt pos neg 
xr15_1__dmy0  pos  neg rlpp1500rpo l=6e-6 w=10e-6 m=1
.ends xr15_subckt
xr15 vsss net0120 xr15_subckt
**End of xr15

.subckt xrbot2_subckt pos neg 
**Parallel configuration of xrbot2
xrbot2_1__dmy0  pos  neg rlpp1500rpo l=8e-6 w=2e-6 m=1
xrbot2_2__dmy0  pos  neg rlpp1500rpo l=8e-6 w=2e-6 m=1
.ends xrbot2_subckt
xrbot2 rt<8> net0287 xrbot2_subckt
**End of xrbot2

.subckt xrtop1_subckt pos neg 
**Series configuration of xrtop1
xrtop1_1__dmy0   pos xrtop1_1__dmy0  rlpp1500rpo l=8e-6 w=2e-6 m=1
xrtop1_2__dmy0   xrtop1_1__dmy0 xrtop1_2__dmy0  rlpp1500rpo l=8e-6 w=2e-6 m=1
xrtop1_3__dmy0   xrtop1_2__dmy0 xrtop1_3__dmy0  rlpp1500rpo l=8e-6 w=2e-6 m=1
xrtop1_4__dmy0   xrtop1_3__dmy0 xrtop1_4__dmy0  rlpp1500rpo l=8e-6 w=2e-6 m=1
xrtop1_5__dmy0   xrtop1_4__dmy0 xrtop1_5__dmy0  rlpp1500rpo l=8e-6 w=2e-6 m=1
xrtop1_6__dmy0   xrtop1_5__dmy0 xrtop1_6__dmy0  rlpp1500rpo l=8e-6 w=2e-6 m=1
xrtop1_7__dmy0   xrtop1_6__dmy0 xrtop1_7__dmy0  rlpp1500rpo l=8e-6 w=2e-6 m=1
xrtop1_8__dmy0   xrtop1_7__dmy0 xrtop1_8__dmy0  rlpp1500rpo l=8e-6 w=2e-6 m=1
xrtop1_9__dmy0   xrtop1_8__dmy0 neg  rlpp1500rpo l=8e-6 w=2e-6 m=1
.ends xrtop1_subckt
xrtop1 net021 ref xrtop1_subckt
**End of xrtop1

.ends MS72vssFB
** End of subcircuit definition.

** Library name: MS0072ZA_PM
** Cell name: MS72vssinv2
** View name: schematic
.subckt MS72vssinv2 in q vg vp5
xm1 q in vp5 vp5 pchi5_3 l=600e-9 w=2.4e-6 m=1 ad=1.584e-12 as=1.584e-12 pd=6.12e-6 ps=6.12e-6 area_bd=583.648e-12 pj_bd=96.64e-6 bv_body=40
xm0 q in vg vg vp5 nchi5_3 l=600e-9 w=1.2e-6 m=1 ad=792e-15 as=792e-15 pd=3.72e-6 ps=3.72e-6 area_iso=873.664e-12 pj_iso=118.24e-6 area_bd=241.984e-12 pj_bd=62.24e-6 bv_body=40
.ends MS72vssinv2
** End of subcircuit definition.

** Library name: MS0072ZA_PM
** Cell name: MS72vssna20
** View name: schematic
.subckt MS72vssna20 in1 in2 q vg vp5
xm0 nd1 in1 vg vg vp5 nchi5_3 l=600e-9 w=600e-9 m=1 ad=396e-15 as=396e-15 pd=2.52e-6 ps=2.52e-6 area_iso=855.712e-12 pj_iso=117.04e-6 area_bd=232.432e-12 pj_bd=61.04e-6 bv_body=40
xm2 q in2 nd1 vg vp5 nchi5_3 l=600e-9 w=600e-9 m=1 ad=396e-15 as=396e-15 pd=2.52e-6 ps=2.52e-6 area_iso=855.712e-12 pj_iso=117.04e-6 area_bd=232.432e-12 pj_bd=61.04e-6 bv_body=40
xm3 q in1 vp5 vp5 pchi5_3 l=600e-9 w=600e-9 m=1 ad=396e-15 as=396e-15 pd=2.52e-6 ps=2.52e-6 area_bd=540.592e-12 pj_bd=93.04e-6 bv_body=40
xm1 q in2 vp5 vp5 pchi5_3 l=600e-9 w=600e-9 m=1 ad=396e-15 as=396e-15 pd=2.52e-6 ps=2.52e-6 area_bd=540.592e-12 pj_bd=93.04e-6 bv_body=40
.ends MS72vssna20
** End of subcircuit definition.

** Library name: MS0072ZA_PM
** Cell name: MS72decode2to4
** View name: schematic
.subckt MS72decode2to4 g v i<1> i<0> o<3> o<2> o<1> o<0>
xi6<3> i<0> i<1> net06<0> g v MS72vssna20
xi6<2> ib<0> i<1> net06<1> g v MS72vssna20
xi6<1> i<0> ib<1> net06<2> g v MS72vssna20
xi6<0> ib<0> ib<1> net06<3> g v MS72vssna20
xi7<3> net06<0> o<3> g v MS72vssinv0
xi7<2> net06<1> o<2> g v MS72vssinv0
xi7<1> net06<2> o<1> g v MS72vssinv0
xi7<0> net06<3> o<0> g v MS72vssinv0
xi125<1> i<1> ib<1> g v MS72vssinv0
xi125<0> i<0> ib<0> g v MS72vssinv0
.ends MS72decode2to4
** End of subcircuit definition.

** Library name: MS0072ZA_PM
** Cell name: MS72vssnr20
** View name: schematic
.subckt MS72vssnr20 in1 in2 q vg vp5
xm3 nd1 in2 vp5 vp5 pchi5_3 l=600e-9 w=600e-9 m=1 ad=396e-15 as=396e-15 pd=2.52e-6 ps=2.52e-6 area_bd=540.592e-12 pj_bd=93.04e-6 bv_body=40
xm1 q in1 nd1 vp5 pchi5_3 l=600e-9 w=600e-9 m=1 ad=396e-15 as=396e-15 pd=2.52e-6 ps=2.52e-6 area_bd=540.592e-12 pj_bd=93.04e-6 bv_body=40
xm0 q in1 vg vg vp5 nchi5_3 l=600e-9 w=600e-9 m=1 ad=396e-15 as=396e-15 pd=2.52e-6 ps=2.52e-6 area_iso=855.712e-12 pj_iso=117.04e-6 area_bd=232.432e-12 pj_bd=61.04e-6 bv_body=40